5
 SCF done         -4.175218520034          0.000004790251
C          -0.00000000000000    0.00000000000000    0.00000000000000
H           0.62479571122916    0.62478807796568    0.62478698751715
H          -0.62479134935888   -0.62478589705909    0.62479353030544
H          -0.62478916844848    0.62479243984738   -0.62478916844658
H           0.62478480657820   -0.62479462075397   -0.62479134937601
