8
freq.log	Energy: -112364.0525816
C          1.12442       -0.45678        0.00000
H          1.06770       -1.09435        0.88691
H          2.09568        0.04898        0.00000
H          1.06770       -1.09435       -0.88691
C         -0.00000        0.55903        0.00000
H          0.04280        1.20099       -0.88900
H          0.04280        1.20099        0.88900
F         -1.22925       -0.09731        0.00000
