7
freq.log	Energy:  -96533.3761292
C         -0.93531       -0.71866        0.00000
H         -1.58919       -0.67428        0.87965
H         -0.37081       -1.65261        0.00000
H         -1.58919       -0.67428       -0.87965
C         -0.00000        0.46322        0.00000
H         -0.50363        1.45748        0.00000
O          1.20809        0.38454        0.00000
