6
freq.log	Energy:  -83307.6215860
N         -0.00000        0.00000        1.44024
C         -0.00000        0.00000        0.27988
C         -0.00000        0.00000       -1.18052
H         -1.02589        0.00000       -1.55928
H          0.51295        0.88845       -1.55928
H          0.51295       -0.88845       -1.55928
