6
freq.log	Energy:  -49318.3586990
C          0.00000        0.00000        0.66504
H          0.00000        0.92341        1.23800
H         -0.00000       -0.92341        1.23800
C          0.00000        0.00000       -0.66504
H         -0.00000       -0.92341       -1.23800
H          0.00000        0.92341       -1.23800
