10
freq.log	Energy: -121212.3718101
C          0.00000        1.29252       -0.61448
H          0.87994        1.33999       -1.26660
H         -0.87994        1.33999       -1.26660
H          0.00000        2.14631        0.06409
C         -0.00000       -1.29252       -0.61448
H          0.87994       -1.33999       -1.26660
H         -0.00000       -2.14631        0.06409
H         -0.87994       -1.33999       -1.26660
C          0.00000        0.00000        0.18471
O          0.00000        0.00000        1.40047
