9
freq.log	Energy: -107979.0642348
N          1.95239       -0.33089       -0.00003
C          0.87902        0.11115        0.00006
C         -0.48387        0.65152       -0.00002
H         -0.59421        1.29694        0.87902
H         -0.59418        1.29678       -0.87912
C         -1.55930       -0.44882        0.00001
H         -2.55351        0.00590       -0.00025
H         -1.46980       -1.08340       -0.88515
H         -1.47009       -1.08311        0.88539
