9
freq.log	Energy:  -73985.9749840
C          0.00000        0.87079        0.00000
C          0.75412       -0.43539        0.00000
C         -0.75412       -0.43539        0.00000
H          0.00000        1.46229        0.91047
H          0.00000        1.46229       -0.91047
H          1.26638       -0.73115        0.91047
H          1.26638       -0.73115       -0.91047
H         -1.26638       -0.73115       -0.91047
H         -1.26638       -0.73115        0.91047
