7
freq.log	Energy:  -96505.9043125
C         -0.00000        0.73445       -0.37147
C         -0.00000       -0.73445       -0.37147
H         -0.91980        1.27469       -0.59580
H          0.91980        1.27469       -0.59580
H          0.91980       -1.27469       -0.59580
H         -0.91980       -1.27469       -0.59580
O          0.00000       -0.00000        0.85510
