8
freq.log	Energy:  -84041.3624216
C         -0.03834       -0.39663        0.74253
C         -0.03834       -0.39663       -0.74253
H          0.86974       -0.71144        1.25330
H         -0.95537       -0.60830        1.28665
H         -0.95537       -0.60830       -1.28665
H          0.86974       -0.71144       -1.25330
N         -0.03834        0.87514       -0.00000
H          0.89978        1.27301       -0.00000
