7
freq.log	Energy: -299189.7796201
C          0.00000        0.74054       -0.80589
C         -0.00000       -0.74054       -0.80589
H         -0.91492        1.25648       -1.08273
H          0.91492        1.25648       -1.08273
H          0.91492       -1.25648       -1.08273
H         -0.91492       -1.25648       -1.08273
S         -0.00000        0.00000        0.87510
