6
freq.log	Energy:  -72617.8833301
C          0.04667        0.66029        0.00000
H          1.09246        0.97812        0.00000
H         -0.43660        1.08726        0.89183
H         -0.43660        1.08726       -0.89183
O          0.04667       -0.75782        0.00000
H         -0.87265       -1.05186        0.00000
