9
freq.log	Energy: -144344.3557215
C          0.00000        1.09483        0.34751
C          0.00000        0.71780       -0.95971
C         -0.00000       -0.71780       -0.95971
C         -0.00000       -1.09483        0.34751
O          0.00000       -0.00000        1.16106
H          0.00000        2.05067        0.84752
H          0.00000        1.37305       -1.81861
H         -0.00000       -1.37305       -1.81861
H         -0.00000       -2.05067        0.84752
