10
freq.log	Energy: -131887.6437871
C          0.00000        1.12504        0.33156
C          0.00000        0.71252       -0.98322
C         -0.00000       -0.71252       -0.98322
C         -0.00000       -1.12504        0.33156
H          0.00000        2.11343        0.76617
H          0.00000        1.36008       -1.84864
H         -0.00000       -1.36008       -1.84864
H         -0.00000       -2.11343        0.76617
N          0.00000        0.00000        1.12228
H          0.00000        0.00000        2.12893
