8
freq.log	Energy: -154392.2018281
C         -0.00000        1.12790        0.00000
C          1.12789        0.36824        0.00000
C          0.61769       -0.96078        0.00000
O         -1.09375        0.34513        0.00000
H         -0.18111        2.19285        0.00000
H          2.15579        0.69470        0.00000
H          1.16370       -1.89538        0.00000
N         -0.69455       -0.99506        0.00000
