9
freq.log	Energy: -238009.7745376
C          0.00000        0.66781       -1.25847
C         -0.00000       -0.66781       -1.25847
O          0.00000       -0.00000        0.97199
H          0.00000        1.35972       -2.08980
H         -0.00000       -1.35972       -2.08980
C          0.00000        1.13197        0.15884
C         -0.00000       -1.13197        0.15884
O          0.00000        2.24553        0.59995
O         -0.00000       -2.24553        0.59995
