9
freq.log	Energy: -347018.5718857
C          0.00000        1.24346       -0.01164
C          0.00000        0.71473       -1.27254
C         -0.00000       -0.71473       -1.27254
C         -0.00000       -1.24346       -0.01164
S          0.00000        0.00000        1.19942
H          0.00000        2.28392        0.28129
H          0.00000        1.32043       -2.17160
H         -0.00000       -1.32043       -2.17160
H         -0.00000       -2.28392        0.28129
