18
freq.log	Energy: -148027.7009902
C         -1.27046        0.73350        0.22908
C         -0.00000        1.46700       -0.22908
C          1.27046        0.73350        0.22908
C          1.27046       -0.73350       -0.22908
C          0.00000       -1.46700        0.22908
C         -1.27046       -0.73350       -0.22908
H          2.16302        1.24882       -0.14603
H          0.00000        1.53532       -1.32654
H          0.00000        2.49764        0.14603
H         -1.32962        0.76766        1.32654
H         -2.16302        1.24882       -0.14603
H          1.32962       -0.76766       -1.32654
H          2.16302       -1.24882        0.14603
H         -0.00000       -2.49764       -0.14603
H         -0.00000       -1.53532        1.32654
H         -1.32962       -0.76766       -1.32654
H         -2.16302       -1.24882        0.14603
H          1.32962        0.76766        1.32654
