30
freq.log	Energy: -578253.9714178
C         -2.20439       -2.94919        0.00000
C         -0.81170       -3.06874        0.00000
C         -0.07771       -1.85931        0.00000
C         -2.13043       -0.74437        0.00000
H         -2.61249        0.23066        0.00000
N         -0.78352       -0.70450        0.00000
N         -2.92239       -1.81535        0.00000
N         -0.41590       -4.39531        0.00000
N         -2.66039       -4.24847        0.00000
H         -3.62831       -4.53282        0.00000
C         -1.54451       -5.06184        0.00000
H         -1.63233       -6.13993        0.00000
N          1.26365       -1.81352        0.00000
H          1.77704       -2.67973        0.00000
H          1.75348       -0.91670        0.00000
H         -0.00000        0.91173        0.00000
C         -0.40257        2.93615        0.00000
C          1.84488        1.89269        0.00000
C          2.45384        3.22582        0.00000
C          1.62487        4.29551        0.00000
H          1.99397        5.31585        0.00000
O         -1.62044        2.84835        0.00000
O          2.50771        0.84952        0.00000
N          0.25475        4.16441        0.00000
N          0.45676        1.85586        0.00000
C          3.95103        3.32338        0.00000
H          4.37441        2.82344        0.87729
H          4.37441        2.82344       -0.87729
H          4.28055        4.36594        0.00000
H         -0.34952        4.97290        0.00000
