29
freq.log	Energy: -588324.6302290
C         -2.10718       -2.60707        0.00000
C         -0.72886       -2.84986        0.00000
C          0.14899       -1.71992        0.00000
C         -1.94383       -0.39169        0.00000
N         -0.57348       -0.51120        0.00000
N         -2.76776       -1.43117        0.00000
N         -0.46092       -4.20908        0.00000
N         -2.67876       -3.85445        0.00000
H         -3.66962       -4.04232        0.00000
C         -1.63919       -4.77274        0.00000
H         -1.82799       -5.83769        0.00000
H          0.00000        0.34905       -0.00000
C          0.48144        3.09151       -0.00000
C          2.44583        1.79950       -0.00000
C          3.28339        2.97648       -0.00000
C          2.65635        4.17863       -0.00000
H          3.18736        5.12413       -0.00000
O         -0.74383        3.24523       -0.00000
N          1.29689        4.24256       -0.00000
N          1.10927        1.88647       -0.00000
H          0.80560        5.12538       -0.00000
N         -2.44174        0.86274       -0.00000
H         -3.44401        0.94898       -0.00000
H         -1.85243        1.69778       -0.00000
O          1.38956       -1.70287        0.00000
N          2.98941        0.57932       -0.00000
H          2.38929       -0.26819        0.00000
H          3.99082        0.47452       -0.00000
H          4.36313        2.90419       -0.00000
