8
freq.log	Energy: -207842.9111560
C          0.00000       -0.00000       -1.25054
H         -0.51111        0.88527       -1.64150
H         -0.51111       -0.88527       -1.64150
H          1.02222       -0.00000       -1.64150
Si         0.00000       -0.00000        0.63764
H         -1.39124        0.00000        1.16695
H          0.69562       -1.20485        1.16695
H          0.69562        1.20485        1.16695
